case9241pegase.py
from numpy import array
def case():
    ppc = {"version": '2'}
    ppc["baseMVA"] = 100.0
	## bus data
	#,	bus_i,	type,	Pd,	Qd,	Gs,	Bs,	area,	Vm,	Va,	baseKV,	zone,	Vmax,	Vmin
    ppc['bus'] = array([
		[1,	1,	378.4,	98.5,	0,	16.61,	0,	1.007206,	-36.856998,	220,	6,	1.1,	0.9],
		[2,	2,	0,	0,	0,	0,	0,	1.031734,	-12.028001,	154,	1,	1.1,	0.9],
		[3,	1,	151,	48.8,	0,	4.69,	0,	1.017843,	-21.794234,	220,	5,	1.1,	0.9],
		[4,	1,	171.41,	23.4,	0,	2.1,	0,	1.020147,	-7.224254,	220,	5,	1.1,	0.9],
		[5,	1,	45.95,	14,	0,	13.34,	0,	0.989775,	-49.871783,	220,	6,	1.1,	0.9],
		[6,	2,	0,	0,	0,	0,	0,	1.038476,	-42.240491,	380,	6,	1.1,	0.9],
		[7,	1,	31.03,	10.3,	0,	0.65,	0,	0.96914,	-36.181195,	110,	21,	1.1,	0.9],
		[8,	2,	0,	0,	0,	0,	0,	1.023005,	-20.771666,	154,	1,	1.1,	0.9],
		[9,	1,	14.3,	2,	0,	1.91,	0,	1.032658,	-3.651312,	154,	1,	1.1,	0.9],
		[10,	1,	134,	24.7,	0,	12.44,	0,	1.033477,	-24.645036,	220,	5,	1.1,	0.9],
		[11,	1,	0,	0,	0,	0,	0,	0.965112,	-31.467815,	150,	9,	1.1,	0.9],
		[12,	1,	-6.11,	2,	0,	0.47,	0,	1.034508,	-26.383988,	150,	9,	1.1,	0.9],
		[13,	1,	-22.74,	-8.32,	0,	6.5,	0,	1.013859,	-48.74904,	220,	6,	1.1,	0.9],
		[14,	1,	13.5,	14.8,	0,	132.435168,	0,	1.14146,	-21.558785,	380,	9,	1.3,	0.7],
		[15,	1,	59.67,	26.7,	0,	12.84,	0,	1.02165,	-48.932223,	220,	4,	1.1,	0.9],
		[16,	1,	30.6,	4.3,	0,	5.15,	0,	1.032431,	6.063256,	154,	1,	1.1,	0.9],
		[17,	1,	67.68,	12.1,	0,	2.18,	0,	1.010381,	6.154063,	220,	3,	1.1,	0.9],
		[18,	2,	0,	0,	0,	0,	0,	1.026728,	18.107815,	380,	3,	1.1,	0.9],
		[19,	1,	25.33,	7.5,	0,	2.39,	0,	1.005109,	-38.460832,	110,	12,	1.1,	0.9],
		[20,	1,	1.4,	0.2,	0,	4.93,	0,	1.024517,	6.675769,	154,	1,	1.1,	0.9],
		[21,	1,	161.2,	39.3,	0,	30.71,	0,	1.031479,	-22.305911,	220,	5,	1.1,	0.9],
		[22,	1,	0,	-0,	0,	0.85,	0,	1.031644,	-18.751971,	220,	5,	1.1,	0.9],
		[23,	1,	19.62,	7.1,	0,	1.15,	0,	1.024755,	-25.628654,	110,	19,	1.1,	0.9],
		[24,	1,	17.22,	5.7,	0,	1.22,	0,	0.960802,	-32.296073,	110,	21,	1.1,	0.9],
		[25,	2,	0,	0,	0,	0,	0,	1.028526,	12.404601,	220,	3,	1.1,	0.9],
		[26,	1,	167.3,	54.8,	0,	110.54,	0,	1.029582,	-3.339851,	380,	5,	1.1,	0.9],
		[27,	1,	-0,	-0,	0,	14.82,	0,	1.085434,	13.448823,	380,	13,	1.1,	0.9],
		[28,	1,	0,	0,	0,	0,	0,	1.004931,	-31.840868,	150,	9,	1.1,	0.9],
		[29,	1,	152.9,	49.4,	0,	27.65,	0,	1.004602,	-13.569928,	380,	5,	1.1,	0.9],
		[30,	1,	-0,	0,	0,	0.56,	0,	1.023518,	-29.715225,	150,	9,	1.1,	0.9],
		[31,	1,	69.68,	43.2,	0,	6.3,	0,	0.905716,	-35.509144,	150,	9,	1.3,	0.7],
		[32,	2,	0,	0,	0,	0,	0,	1.003223,	-43.014699,	220,	4,	1.1,	0.9],
		[33,	2,	0,	0,	0,	0,	0,	1.026534,	-38.549418,	220,	4,	1.1,	0.9],
		[34,	1,	13.52,	4.9,	0,	1.8,	0,	1.028523,	-24.559588,	110,	19,	1.1,	0.9],
		[35,	1,	10.51,	3.5,	0,	0.31,	0,	1.026497,	-36.721451,	110,	12,	1.1,	0.9],
		[36,	1,	-0,	-0,	0.12,	15.34,	0,	1.045193,	-21.272765,	220,	19,	1.1,	0.9],
		[37,	1,	9.21,	2.6,	0,	2,	0,	0.972198,	-29.508765,	110,	18,	1.1,	0.9],
		[38,	1,	42.75,	12.8,	0,	13.3,	0,	1.022868,	25.558732,	220,	8,	1.1,	0.9],
		[39,	2,	0,	0,	0,	0,	0,	1.003511,	-38.297997,	150,	10,	1.1,	0.9],
		[40,	1,	16.02,	4.54,	0,	0.1,	0,	0.999097,	-31.840826,	110,	23,	1.1,	0.9],
		[41,	1,	27.9,	4,	0,	4.23,	0,	1.008625,	-8.828964,	154,	1,	1.1,	0.9],
		[42,	1,	20.82,	7.9,	0,	26.89,	0,	1.042404,	-49.184531,	380,	4,	1.1,	0.9],
		[43,	1,	12.6,	1.8,	0,	2.03,	0,	1.028739,	-15.907171,	154,	1,	1.1,	0.9],
		[44,	1,	-0,	0,	0,	7.27,	0,	1.040868,	-22.52467,	220,	5,	1.1,	0.9],
		[45,	1,	10.11,	3.7,	0,	0.81,	0,	1.048003,	-25.286846,	110,	19,	1.1,	0.9],
		[46,	1,	10.01,	2.7,	0,	1.14,	0,	0.958698,	-29.319698,	110,	18,	1.1,	0.9],
		[47,	1,	6.31,	0,	0,	0.67,	0,	0.985859,	-27.824727,	110,	18,	1.1,	0.9],
		[48,	1,	2.9,	0.9,	0,	0.6,	0,	1.045484,	-26.609146,	110,	15,	1.1,	0.9],
		[49,	2,	0,	0,	0,	0,	0,	1.020323,	-36.088357,	220,	6,	1.1,	0.9],
		[50,	1,	48.8,	6.9,	0,	8.71,	0,	1.025009,	-4.460831,	154,	1,	1.1,	0.9],
		[51,	2,	0,	0,	0,	0,	0,	1.006665,	-48.120109,	220,	4,	1.1,	0.9],
		[52,	1,	127.6,	31.8,	0,	20.51,	0,	1.017252,	0.511391,	150,	8,	1.1,	0.9],
		[53,	1,	48.65,	16.1,	0,	7.14,	0,	1.053406,	-9.368997,	220,	5,	1.1,	0.9],
		[54,	1,	110.5,	-26.8,	0,	16.37,	0,	1.023883,	-35.660013,	220,	6,	1.1,	0.9],
		[55,	1,	0,	-0,	0,	1.23,	0,	0.99682,	9.004928,	220,	3,	1.1,	0.9],
		[56,	1,	140,	79.7,	0,	6.5,	0,	1.010606,	-16.919749,	220,	3,	1.1,	0.9],
		[57,	1,	21.6,	3,	0,	3.54,	0,	1.006533,	-9.693767,	154,	1,	1.1,	0.9],
		[58,	1,	0,	0,	0,	2.31,	0,	1.027113,	-22.181789,	380,	5,	1.1,	0.9],
		[59,	1,	119.2,	20.7,	0,	3.31,	0,	1.026698,	-24.169412,	220,	5,	1.1,	0.9],
		[60,	1,	0.24,	-1.66,	0,	0.65,	0,	1.024291,	-19.933148,	110,	18,	1.1,	0.9],
		[61,	1,	-0,	0,	0,	58.57,	0,	1.092743,	45.900184,	380,	3,	1.1,	0.9],
		[62,	1,	-0,	0,	0,	1.34,	0,	0.970166,	-27.705319,	110,	18,	1.1,	0.9],
		[63,	1,	187.9,	110.2,	0,	21.25,	0,	1.020254,	5.462635,	380,	3,	1.1,	0.9],
		[64,	1,	14.92,	5.5,	0,	1.31,	0,	1.058218,	-24.075639,	110,	15,	1.1,	0.9],
		[65,	1,	-18.52,	6.1,	0,	0.79,	0,	0.920443,	-33.979065,	150,	9,	1.1,	0.9],
		[66,	1,	4.61,	1.7,	0,	2.32,	0,	1.07583,	-17.389672,	110,	19,	1.1,	0.9],
		[67,	1,	0,	0,	0.099501,	82.133595,	0,	1.076797,	-22.668386,	380,	18,	1.1,	0.9],
		[68,	1,	10.81,	5.1,	0,	1.09,	0,	0.932272,	-32.555245,	110,	18,	1.1,	0.9],
		[69,	1,	62.87,	20.5,	0,	1.15,	0,	1.016399,	-0.749163,	150,	8,	1.1,	0.9],
		[70,	1,	0,	0,	0,	2.64,	0,	1.021842,	-7.278252,	154,	1,	1.1,	0.9],
		[71,	1,	126.3,	42.4,	0,	55.24,	0,	1.045653,	2.671707,	150,	8,	1.1,	0.9],
		[72,	1,	6.91,	-4.6,	0,	5.75,	0,	1.007342,	-41.162683,	220,	4,	1.1,	0.9],
		[73,	1,	15.72,	5.2,	0,	0.11,	0,	1.011319,	-38.957605,	110,	12,	1.1,	0.9],
		[74,	1,	0,	0,	0,	0,	0,	1.048486,	-29.24882,	150,	9,	1.1,	0.9],
		[75,	1,	38.74,	6.1,	0,	1.17,	0,	1.019038,	-53.244715,	220,	4,	1.1,	0.9],
		[76,	1,	22.13,	10.7,	0,	14.21,	0,	1.022914,	25.568654,	220,	8,	1.1,	0.9],
		[77,	1,	-0,	-0,	0,	0.73,	0,	1.006664,	-49.599091,	220,	4,	1.1,	0.9],
		[78,	1,	0,	-0,	0,	0.83,	0,	0.981839,	-20.873081,	110,	18,	1.1,	0.9],
		[79,	1,	138.8,	136.7,	0,	8.76,	0,	1.014386,	13.838092,	380,	3,	1.1,	0.9],
		[80,	2,	0,	0,	0,	0,	0,	1.068393,	-26.943073,	220,	23,	1.1,	0.9],
		[81,	1,	67.76,	19.18,	0,	1.47,	0,	1.010926,	61.408155,	150,	1,	1.1,	0.9],
		[82,	1,	22.02,	5.1,	0,	0.69,	0,	1.03239,	-34.385172,	110,	1,	1.1,	0.9],
		[83,	1,	0,	0,	0,	6.62,	0,	0.980327,	13.445474,	220,	3,	1.1,	0.9],
		[84,	1,	1,	0.3,	0,	0.19,	0,	1.018715,	-30.235601,	110,	19,	1.1,	0.9],
		[85,	1,	20.9,	3,	0,	5.74,	0,	1.022071,	16.413645,	154,	1,	1.1,	0.9],
		[86,	1,	0,	0,	0,	0.12,	0,	1.051084,	-24.673587,	150,	9,	1.1,	0.9],
		[87,	1,	21.52,	5.1,	0,	0.5,	0,	1.01789,	-15.037836,	110,	18,	1.1,	0.9],
		[88,	1,	71.98,	28.8,	0,	11,	0,	1.006747,	-37.071358,	220,	6,	1.1,	0.9],
		[89,	1,	0,	0,	0.199111,	4.530599,	0,	0.991009,	-5.004163,	380,	2,	1.1,	0.9],
		[90,	1,	363.25,	115.39,	0,	3.95,	0,	1.042035,	-27.99494,	220,	5,	1.1,	0.9],
		[91,	1,	-0,	0,	0,	0.02,	0,	1.027005,	0.21051,	150,	8,	1.1,	0.9],
		[92,	1,	192.9,	73.3,	0,	20.75,	0,	1.022158,	3.828439,	380,	3,	1.1,	0.9],
		[93,	1,	17.52,	6.3,	0,	0.26,	0,	1.059099,	-21.280687,	110,	19,	1.1,	0.9],
		[94,	1,	33.14,	12,	0,	0.65,	0,	1.007744,	-25.49367,	110,	19,	1.1,	0.9],
		[95,	1,	40.45,	25,	0,	9.82,	0,	0.980011,	-30.352301,	150,	9,	1.1,	0.9],
		[96,	1,	193.17,	53.37,	0,	4.58,	0,	1.036787,	-15.459067,	220,	5,	1.1,	0.9],
		[97,	1,	0,	0,	0,	9.38,	0,	1.053303,	2.669719,	380,	1,	1.1,	0.9],
		[98,	1,	90.7,	25.5,	0,	3.11,	0,	1.048113,	-2.631892,	220,	3,	1.1,	0.9],
		[99,	1,	176.3,	-58.9,	0,	24.77,	0,	1.02505,	-33.267073,	380,	6,	1.1,	0.9],
		[100,	1,	35.94,	22.3,	0,	0,	0,	1.033873,	-29.927627,	150,	9,	1.1,	0.9],
		[101,	1,	-0,	0,	0,	0.29,	0,	0.964847,	-31.479281,	150,	9,	1.1,	0.9],
		[102,	1,	0,	-0,	0,	3.77,	0,	1.004007,	-50.623198,	220,	6,	1.1,	0.9],
		[103,	1,	65.07,	40.3,	0,	5.43,	0,	0.992015,	-34.266143,	150,	9,	1.1,	0.9],
		[104,	1,	51.36,	-8.8,	0,	2.15,	0,	0.965443,	-55.943839,	220,	6,	1.1,	0.9],
		[105,	1,	-0,	-0,	0,	82.55,	0,	1.036504,	-34.250878,	380,	6,	1.1,	0.9],
		[106,	1,	0,	-0,	0,	31.19,	0,	1.162506,	-22.492638,	380,	23,	1.3,	0.7],
		[107,	2,	0,	0,	0,	0,	0,	1.083135,	41.615508,	380,	3,	1.3,	0.7],
		[108,	1,	3.8,	1.3,	0,	0.4,	0,	1.005191,	-17.950996,	110,	18,	1.1,	0.9],
		[109,	1,	137,	19.5,	0,	4.9,	0,	1.004858,	-11.902933,	154,	1,	1.1,	0.9],
		[110,	1,	0,	0,	0,	0,	0,	0.994253,	-32.082481,	150,	9,	1.1,	0.9],
		[111,	1,	61.07,	36,	0,	3.09,	0,	1.049848,	-22.296332,	220,	11,	1.1,	0.9],
		[112,	1,	0,	0,	0,	3.24,	0,	1.030495,	-9.592049,	220,	3,	1.1,	0.9],
		[113,	1,	-0,	-0,	0,	6.532711,	0,	1.027407,	-14.491581,	380,	5,	1.1,	0.9],
		[114,	1,	55.7,	7.9,	0,	4.21,	0,	1.026508,	9.781802,	154,	1,	1.1,	0.9],
		[115,	1,	0,	-0,	0,	4.21,	0,	1.062005,	-20.086677,	220,	5,	1.1,	0.9],
		[116,	1,	1.8,	0.7,	0,	0.3,	0,	1.037818,	-21.171048,	110,	19,	1.1,	0.9],
		[117,	1,	40.04,	16,	0,	0.52,	0,	1.002542,	-24.312333,	110,	18,	1.1,	0.9],
		[118,	1,	-0,	0,	0,	36.562834,	0,	1.023863,	-11.320452,	380,	5,	1.1,	0.9],
		[119,	1,	0,	0,	0,	0.09,	0,	1.066627,	-21.228028,	150,	9,	1.1,	0.9],
		[120,	1,	140.6,	20.1,	0,	13.81,	0,	1.017689,	-24.512143,	154,	1,	1.1,	0.9],
		[121,	1,	45.15,	14.1,	0,	0.19,	0,	1.061687,	-25.751773,	110,	15,	1.1,	0.9],
		[122,	1,	-0,	0,	0,	5.75,	0,	1.002609,	8.035022,	220,	3,	1.1,	0.9],
		[123,	2,	0,	0,	0,	0,	0,	1.041503,	-19.868767,	220,	11,	1.1,	0.9],
		[124,	2,	0,	0,	0,	0,	0,	1.077112,	8.310105,	220,	5,	1.1,	0.9],
		[125,	1,	3.42,	2.68,	0,	1.46,	0,	1.022215,	-19.969192,	110,	18,	1.1,	0.9],
		[126,	1,	0,	-0,	0,	2.64,	0,	1.009839,	3.639019,	154,	1,	1.1,	0.9],
		[127,	1,	-0,	-0,	0,	4.3,	0,	1.021779,	-28.832789,	220,	6,	1.1,	0.9],
		[128,	1,	23.73,	12.7,	0,	0.52,	0,	1.015182,	-16.413952,	220,	5,	1.1,	0.9],
		[129,	1,	121.9,	7.4,	0,	1.34,	0,	1.019572,	-12.355618,	220,	3,	1.1,	0.9],
		[130,	1,	-0,	0,	0.135375,	47.750675,	0,	1.057946,	-47.3148,	380,	10,	1.1,	0.9],
		[131,	1,	47.35,	16.4,	0,	4.08,	0,	1.03239,	-40.262984,	110,	22,	1.1,	0.9],
		[132,	1,	0,	-0,	0,	21.39,	0,	1.062408,	-43.935749,	380,	1,	1.1,	0.9],
		[133,	1,	38.14,	12.5,	0,	6.28,	0,	1.020783,	2.35489,	150,	8,	1.1,	0.9],
		[134,	1,	54.2,	7.8,	0,	94.9,	0,	1.012932,	6.186446,	400,	1,	1.1,	0.9],
		[135,	1,	130.6,	84.9,	0,	4.22,	0,	1.021481,	-22.444323,	220,	7,	1.1,	0.9],
		[136,	1,	7.91,	2.6,	0,	0.74,	0,	1.006509,	-36.386405,	110,	12,	1.1,	0.9],
		[137,	1,	42.1,	74.61,	0,	37.58,	0,	1.003064,	61.688917,	150,	1,	1.1,	0.9],
		[138,	1,	-75.38,	7.8,	0,	29.9,	0,	1.067481,	-41.992026,	380,	10,	1.1,	0.9],
		[139,	1,	-0,	-0,	0,	36.92,	0,	1.013268,	16.764642,	380,	8,	1.1,	0.9],
		[140,	1,	0,	0,	0,	4.14,	0,	1.027453,	17.039361,	220,	8,	1.1,	0.9],
		[141,	2,	0,	0,	0,	0,	0,	1.050716,	-2.165585,	220,	13,	1.1,	0.9],
		[142,	2,	0,	0,	0,	0,	0,	1.042299,	-30.404497,	220,	6,	1.1,	0.9],
		[143,	1,	0,	0,	0,	0,	0,	1.022343,	3.87531,	150,	8,	1.1,	0.9],
		[144,	1,	0,	0,	0,	98.53,	0,	1.063798,	18.932224,	380,	14,	1.1,	0.9],
		[145,	1,	38.34,	5.6,	0,	7.64,	0,	1.038236,	-8.964288,	220,	5,	1.1,	0.9],
		[146,	1,	269.6,	65.7,	0,	0,	0,	1.085135,	-25.638373,	120,	20,	1.3,	0.7],
		[147,	2,	0,	0,	0,	0,	0,	1.058041,	-13.496004,	220,	7,	1.1,	0.9],
		[148,	1,	32.34,	12,	0,	6.1,	0,	1.034625,	-8.217967,	220,	5,	1.1,	0.9],
		[149,	1,	100.1,	45.1,	0,	1.11,	0,	1.021632,	-40.902503,	380,	6,	1.1,	0.9],
		[150,	2,	0,	0,	0,	0,	0,	1.062129,	2.399597,	220,	5,	1.1,	0.9],
		[151,	2,	0,	0,	0,	0,	0,	1.013748,	-24.076149,	154,	1,	1.1,	0.9],
		[152,	1,	7,	1,	0,	4.69,	0,	1.050332,	-5.822456,	154,	1,	1.1,	0.9],
		[153,	1,	-0,	0,	0,	0.56,	0,	1.020345,	-28.197731,	150,	7,	1.1,	0.9],
		[154,	1,	0,	0,	0,	1.29,	0,	1.016529,	-40.246021,	110,	12,	1.1,	0.9],
		[155,	1,	-0,	-0,	0,	1.7,	0,	1.019829,	-29.30153,	110,	21,	1.1,	0.9],
		[156,	1,	40.34,	25,	0,	1.14,	0,	0.953098,	-31.912298,	150,	9,	1.1,	0.9],
		[157,	1,	9.21,	3.3,	0,	1.2,	0,	1.01451,	-13.069704,	110,	19,	1.1,	0.9],
		[158,	1,	166,	60.3,	0,	0.57,	0,	1.01467,	6.148661,	220,	3,	1.1,	0.9],
		[159,	1,	0,	-0,	0,	0.1,	0,	1.021326,	-29.687582,	150,	9,	1.1,	0.9],
		[160,	1,	79.4,	11.3,	0,	4.92,	0,	1.031014,	0.809761,	154,	1,	1.1,	0.9],
		[161,	1,	-0,	-0,	0,	0.16,	0,	1.091016,	-27.88035,	150,	9,	1.1,	0.9],
		[162,	1,	0,	0,	0,	66.65,	0,	1.052312,	-15.685671,	380,	6,	1.1,	0.9],
		[163,	1,	147.76,	32.73,	0,	8.34,	0,	1.045445,	-10.873592,	220,	5,	1.1,	0.9],
		[164,	1,	0,	-0,	0,	5.17,	0,	1.02082,	-1.152459,	150,	8,	1.1,	0.9],
		[165,	1,	26.8,	-3.7,	0,	51.261678,	0,	1.073155,	-24.141412,	380,	9,	1.1,	0.9],
		[166,	2,	0,	0,	0,	0,	0,	1.040747,	11.781552,	220,	3,	1.1,	0.9],
		[167,	1,	257.5,	131.1,	0,	1.08,	0,	1.031121,	-4.856472,	220,	3,	1.1,	0.9],
		[168,	1,	16.7,	2.4,	0,	6.09,	0,	1.033177,	12.044899,	154,	1,	1.1,	0.9],
		[169,	1,	0,	0,	0,	1.91,	0,	1.045543,	-29.415558,	150,	9,	1.1,	0.9],
		[170,	1,	-0,	-0,	0,	2.35,	0,	1.011462,	34.762397,	220,	1,	1.1,	0.9],
		[171,	1,	100.8,	13.2,	0,	5.24,	0,	1.061976,	-25.502124,	220,	5,	1.1,	0.9],
		[172,	1,	111.7,	10.96,	0,	4.22,	0,	1.010114,	-47.141199,	220,	4,	1.1,	0.9],
		[173,	1,	90.38,	-5.05,	0,	8.49,	0,	1.054447,	14.634452,	220,	13,	1.1,	0.9],
		[174,	1,	370.5,	-17,	0,	9.91,	0,	1.071451,	-28.241418,	220,	5,	1.1,	0.9],
		[175,	1,	9.91,	3.2,	0,	0.67,	0,	1.003654,	-41.36559,	110,	12,	1.1,	0.9],
		[176,	1,	-0.69,	-5.46,	0,	5.07,	0,	1.040842,	-28.533618,	150,	9,	1.1,	0.9],
		[177,	1,	94.9,	36.2,	0,	16.46,	0,	0.969767,	-43.357076,	220,	10,	1.1,	0.9],
		[178,	1,	81.09,	48,	0,	0.03,	0,	1.013199,	-30.419221,	150,	9,	1.1,	0.9],
		[179,	2,	0,	0,	0,	0,	0,	1.043661,	-50.052119,	380,	4,	1.1,	0.9],
		[180,	1,	0,	0,	0,	0.54,	0,	1.02953,	-28.102331,	110,	21,	1.1,	0.9],
		[181,	1,	54.96,	16.9,	0,	3.37,	0,	1.040515,	-39.643018,	110,	22,	1.1,	0.9],
		[182,	1,	19.32,	26,	0,	0.69,	0,	1.03553,	39.324365,	220,	3,	1.1,	0.9],
		[183,	1,	0,	0,	0,	1.83,	0,	1.031452,	-29.237157,	150,	9,	1.1,	0.9],
		[184,	1,	-0,	-0,	0,	2.42,	0,	1.037524,	-12.250638,	220,	5,	1.1,	0.9],
		[185,	1,	20.9,	3,	0,	4.11,	0,	1.007995,	-7.232267,	154,	1,	1.1,	0.9],
		[186,	1,	19.92,	6.6,	0,	0.56,	0,	1.009472,	-30.519212,	110,	21,	1.1,	0.9],
		[187,	1,	57.16,	2,	0,	1.48,	0,	1.002263,	-38.456187,	110,	22,	1.1,	0.9],
		[188,	1,	36.84,	13.9,	0,	3.3,	0,	1.015193,	-19.834342,	220,	5,	1.1,	0.9],
		[189,	1,	-15.04,	-5.12,	0,	0.43,	0,	1.001228,	-27.784349,	110,	18,	1.1,	0.9],
		[190,	2,	0,	0,	0,	0,	0,	1.025544,	-21.44389,	110,	19,	1.1,	0.9],
		[191,	1,	0,	-0,	0,	14.19,	0,	1.016435,	-36.476155,	220,	6,	1.1,	0.9],
		[192,	2,	0,	0,	0,	0,	0,	1.048355,	66.012239,	380,	3,	1.1,	0.9],
		[193,	1,	119.9,	3.7,	0,	3.33,	0,	1.031896,	24.418857,	220,	3,	1.1,	0.9],
		[194,	2,	0,	0,	0,	0,	0,	1.02931,	13.231568,	150,	8,	1.1,	0.9],
		[195,	1,	73.14,	21.55,	0,	8.52,	0,	1.048915,	-9.187839,	220,	5,	1.1,	0.9],
		[196,	1,	0,	-0,	0,	12.48,	0,	1.069098,	-26.717314,	220,	5,	1.1,	0.9],
		[197,	2,	0,	0,	0,	0,	0,	1.099985,	44.827022,	380,	3,	1.1,	0.9],
		[198,	1,	39.74,	11.8,	0,	1.44,	0,	1.011257,	-16.658556,	220,	5,	1.1,	0.9],
		[199,	1,	86.8,	28.4,	0,	1.34,	0,	1.017154,	0.540558,	150,	8,	1.1,	0.9],
		[200,	1,	22.42,	2.1,	0,	0.19,	0,	1.010977,	61.566699,	150,	1,	1.1,	0.9],
...
	])

	## generator data
	#,	bus,	Pg,	Qg,	Qmax,	Qmin,	Vg,	mBase,	status,	Pmax,	Pmin,	Pc1,	Pc2,	Qc1min,	Qc1max,	Qc2min,	Qc2max,	ramp_agc,	ramp_10,	ramp_30,	ramp_q,	apf
    ppc['gen'] = array([
		[2,	-81.4,	6.64,	42.19,	-20.45,	1.031734,	100,	1,	100,	-108.53,	0,	0,	0,	0,	0,	0,	0,	0,	0,	0,	0],
		[6,	701,	183.79,	524.53,	-211.57,	1.038476,	100,	1,	1200,	400,	0,	0,	0,	0,	0,	0,	0,	0,	0,	0,	0],
		[8,	499.7,	-0.95,	251.73,	-246.25,	1.023005,	100,	1,	524.68,	0,	0,	0,	0,	0,	0,	0,	0,	0,	0,	0,	0],
		[18,	467.5,	201.91,	212.97,	-93.48,	1.026728,	100,	1,	500,	166.67,	0,	0,	0,	0,	0,	0,	0,	0,	0,	0,	0],
		[25,	319.6,	164.04,	179.43,	-66.21,	1.028526,	100,	1,	400,	0,	0,	0,	0,	0,	0,	0,	0,	0,	0,	0,	0],
		[32,	8,	-1.02,	5.91,	-4.56,	1.003223,	100,	1,	16.2,	0,	0,	0,	0,	0,	0,	0,	0,	0,	0,	0,	0],
		[33,	5.3,	-0.56,	2.27,	-1.08,	1.026534,	100,	1,	5.38,	0,	0,	0,	0,	0,	0,	0,	0,	0,	0,	0,	0],
		[39,	34.3,	4.77,	17.76,	-7.14,	1.003511,	100,	1,	40,	0,	0,	0,	0,	0,	0,	0,	0,	0,	0,	0,	0],
		[49,	309.2,	62.33,	218.52,	-75.97,	1.020323,	100,	1,	480,	0,	0,	0,	0,	0,	0,	0,	0,	0,	0,	0,	0],
		[51,	-144.5,	-0.31,	5.48,	-4.19,	1.006665,	100,	1,	100,	-192.67,	0,	0,	0,	0,	0,	0,	0,	0,	0,	0,	0],
		[80,	43.2,	2.23,	139.94,	-43.78,	1.068393,	100,	1,	100,	28.8,	0,	0,	0,	0,	0,	0,	0,	0,	0,	0,	0],
		[107,	570,	-75.96,	253.85,	-113.79,	1.083135,	100,	1,	600,	200,	0,	0,	0,	0,	0,	0,	0,	0,	0,	0,	0],
		[123,	24.9,	8.45,	18.84,	-6.06,	1.041503,	100,	1,	40,	0,	0,	0,	0,	0,	0,	0,	0,	0,	0,	0,	0],
		[124,	861.3,	69.97,	440.32,	-172.59,	1.077112,	100,	1,	1000,	333.33,	0,	0,	0,	0,	0,	0,	0,	0,	0,	0,	0],
		[141,	-73.2,	5.11,	18.59,	-6.33,	1.050716,	100,	1,	100,	-97.6,	0,	0,	0,	0,	0,	0,	0,	0,	0,	0,	0],
		[142,	158.7,	2.2,	78.15,	-32.4,	1.042299,	100,	1,	180,	0,	0,	0,	0,	0,	0,	0,	0,	0,	0,	0,	0],
		[147,	-16,	9.74,	70.12,	-29.5,	1.058041,	100,	1,	100,	-21.33,	0,	0,	0,	0,	0,	0,	0,	0,	0,	0,	0],
		[150,	67.29,	-5.08,	77.09,	-22.54,	1.062129,	100,	1,	160,	0,	0,	0,	0,	0,	0,	0,	0,	0,	0,	0,	0],
		[151,	-110.35,	-11.36,	37.97,	-58.18,	1.013748,	100,	1,	100,	-147.13,	0,	0,	0,	0,	0,	0,	0,	0,	0,	0,	0],
		[166,	292.2,	107.13,	127.67,	-56.53,	1.040747,	100,	1,	300,	0,	0,	0,	0,	0,	0,	0,	0,	0,	0,	0,	0],
		[179,	-179.2,	-30.19,	52.64,	-51.72,	1.043661,	100,	1,	100,	-238.93,	0,	0,	0,	0,	0,	0,	0,	0,	0,	0,	0],
		[190,	90.69,	31,	54.24,	-20.63,	1.025544,	100,	1,	120,	0,	0,	0,	0,	0,	0,	0,	0,	0,	0,	0,	0],
		[192,	135.8,	12.15,	91.61,	-30.98,	1.048355,	100,	1,	200,	0,	0,	0,	0,	0,	0,	0,	0,	0,	0,	0,	0],
		[194,	268.6,	42.2,	130.19,	-53.53,	1.02931,	100,	1,	300,	100,	0,	0,	0,	0,	0,	0,	0,	0,	0,	0,	0],
		[197,	292.2,	-57.05,	123.89,	-59.54,	1.099985,	100,	1,	300,	0,	0,	0,	0,	0,	0,	0,	0,	0,	0,	0,	0],
		[201,	5.2,	-0.6,	2.27,	-1.07,	1.01914,	100,	1,	5.37,	0,	0,	0,	0,	0,	0,	0,	0,	0,	0,	0,	0],
		[209,	25.4,	9.44,	18.7,	-6.17,	1.026832,	100,	1,	40,	0,	0,	0,	0,	0,	0,	0,	0,	0,	0,	0,	0],
		[214,	-175.2,	1.82,	192,	-52.89,	1.079765,	100,	1,	100,	-233.6,	0,	0,	0,	0,	0,	0,	0,	0,	0,	0,	0],
		[219,	1171,	704.29,	937.43,	-288.16,	1.056623,	100,	1,	2000,	666.67,	0,	0,	0,	0,	0,	0,	0,	0,	0,	0,	0],
		[220,	668.7,	-115.27,	402.92,	-146.95,	1.047116,	100,	1,	900,	300,	0,	0,	0,	0,	0,	0,	0,	0,	0,	0,	0],
		[221,	296,	43.03,	183.92,	-65.3,	1.030636,	100,	1,	400,	133.33,	0,	0,	0,	0,	0,	0,	0,	0,	0,	0,	0],
		[222,	-147.3,	2.36,	12.51,	-5.62,	1.030494,	100,	1,	100,	-196.4,	0,	0,	0,	0,	0,	0,	0,	0,	0,	0,	0],
		[239,	-7.05,	7.21,	38.52,	-11.24,	1.018711,	100,	1,	100,	-9.4,	0,	0,	0,	0,	0,	0,	0,	0,	0,	0,	0],
		[246,	307.1,	-22.47,	378.08,	-112.59,	1.06685,	100,	1,	800,	266.67,	0,	0,	0,	0,	0,	0,	0,	0,	0,	0,	0],
		[248,	-172,	11.84,	37.47,	-12.35,	1.043991,	100,	1,	100,	-229.33,	0,	0,	0,	0,	0,	0,	0,	0,	0,	0,	0],
		[255,	423.2,	-30.86,	220.66,	-85.89,	1.059597,	100,	1,	500,	166.67,	0,	0,	0,	0,	0,	0,	0,	0,	0,	0,	0],
		[262,	-115.4,	12.33,	38.1,	-11.72,	1.033795,	100,	1,	100,	-153.87,	0,	0,	0,	0,	0,	0,	0,	0,	0,	0,	0],
		[263,	-34.4,	-3.16,	5.05,	-6.95,	1.028681,	100,	1,	100,	-45.87,	0,	0,	0,	0,	0,	0,	0,	0,	0,	0,	0],
		[278,	-64.1,	7.04,	37.7,	-12.09,	1.014153,	100,	1,	100,	-85.47,	0,	0,	0,	0,	0,	0,	0,	0,	0,	0,	0],
		[282,	1245.7,	-279.39,	924.64,	-300.35,	1.077605,	100,	1,	2000,	666.67,	0,	0,	0,	0,	0,	0,	0,	0,	0,	0,	0],
		[289,	52.7,	-3.66,	26.02,	-10.81,	1.046783,	100,	1,	60,	0,	0,	0,	0,	0,	0,	0,	0,	0,	0,	0,	0],
		[294,	250,	10.09,	45.1,	-21.32,	1.003375,	100,	1,	480,	160,	0,	0,	0,	0,	0,	0,	0,	0,	0,	0,	0],
		[299,	975.9,	97.97,	721.25,	-258.71,	1.039248,	100,	1,	1600,	533.33,	0,	0,	0,	0,	0,	0,	0,	0,	0,	0,	0],
		[309,	95.1,	36.53,	42.62,	-18.72,	0.989085,	100,	1,	100,	0,	0,	0,	0,	0,	0,	0,	0,	0,	0,	0,	0],
		[310,	346.18,	632.57,	10000,	-10000,	1.155322,	100,	1,	700,	200,	0,	0,	0,	0,	0,	0,	0,	0,	0,	0,	0],
		[313,	9.6,	-1.71,	4.83,	-7.17,	1.025259,	100,	1,	10.08,	0,	0,	0,	0,	0,	0,	0,	0,	0,	0,	0,	0],
		[320,	1760,	-355.74,	320.04,	-843.96,	1.013336,	100,	1,	1812,	604,	0,	0,	0,	0,	0,	0,	0,	0,	0,	0,	0],
		[324,	94,	30.47,	95.32,	-27.29,	1.063285,	100,	1,	200,	0,	0,	0,	0,	0,	0,	0,	0,	0,	0,	0,	0],
		[325,	-21.4,	0.06,	1.93,	-1.01,	1.009625,	100,	1,	100,	-28.53,	0,	0,	0,	0,	0,	0,	0,	0,	0,	0,	0],
		[328,	-77.9,	0.12,	188.91,	-56.14,	1.017618,	100,	1,	100,	-103.87,	0,	0,	0,	0,	0,	0,	0,	0,	0,	0,	0],
		[338,	83.7,	3.24,	55.54,	-19.16,	1.046957,	100,	1,	120,	0,	0,	0,	0,	0,	0,	0,	0,	0,	0,	0,	0],
		[347,	50.8,	-13.47,	33.33,	-42.67,	1.020949,	100,	1,	53.42,	0,	0,	0,	0,	0,	0,	0,	0,	0,	0,	0,	0],
		[348,	160.4,	3.38,	110.57,	-36.9,	1.057894,	100,	1,	240,	0,	0,	0,	0,	0,	0,	0,	0,	0,	0,	0,	0],
		[352,	1250.4,	256.45,	926.35,	-297.68,	1.048835,	100,	1,	2000,	666.67,	0,	0,	0,	0,	0,	0,	0,	0,	0,	0,	0],
		[361,	238.3,	27.11,	186.39,	-58.5,	1.05949,	100,	1,	400,	133.33,	0,	0,	0,	0,	0,	0,	0,	0,	0,	0,	0],
		[366,	185.6,	-33.91,	61.97,	-120.27,	1.008853,	100,	1,	196,	65.33,	0,	0,	0,	0,	0,	0,	0,	0,	0,	0,	0],
		[372,	-54.9,	-13.56,	282.95,	-84.3,	1.074991,	100,	1,	100,	-73.2,	0,	0,	0,	0,	0,	0,	0,	0,	0,	0,	0],
		[382,	25.68,	11.15,	38.4,	-11.44,	1.060853,	100,	1,	80,	0,	0,	0,	0,	0,	0,	0,	0,	0,	0,	0,	0],
		[389,	69,	17.57,	56.73,	-17.84,	1.017731,	100,	1,	120,	0,	0,	0,	0,	0,	0,	0,	0,	0,	0,	0,	0],
		[394,	2404.4,	-96.56,	1224.26,	-490.17,	1.063147,	100,	1,	2800,	933.33,	0,	0,	0,	0,	0,	0,	0,	0,	0,	0,	0],
		[406,	31,	10.74,	22.22,	-17.35,	1.012399,	100,	1,	61.23,	0,	0,	0,	0,	0,	0,	0,	0,	0,	0,	0,	0],
		[409,	-62,	-7.35,	24.32,	-29.67,	1.032831,	100,	1,	100,	-82.67,	0,	0,	0,	0,	0,	0,	0,	0,	0,	0,	0],
		[411,	35.9,	4.64,	17.66,	-7.27,	1.03248,	100,	1,	40,	0,	0,	0,	0,	0,	0,	0,	0,	0,	0,	0,	0],
		[413,	231,	21.57,	124.12,	-49.84,	1.048421,	100,	1,	280,	0,	0,	0,	0,	0,	0,	0,	0,	0,	0,	0,	0],
		[423,	-19.2,	0.02,	5.22,	-2.6,	1.030299,	100,	1,	100,	-25.6,	0,	0,	0,	0,	0,	0,	0,	0,	0,	0,	0],
		[424,	636.3,	269.64,	304.38,	-125.48,	1.051241,	100,	1,	700,	233.33,	0,	0,	0,	0,	0,	0,	0,	0,	0,	0,	0],
		[433,	436,	206.71,	217.18,	-89.22,	1.024885,	100,	1,	500,	166.67,	0,	0,	0,	0,	0,	0,	0,	0,	0,	0,	0],
		[434,	-2.8,	-1.11,	2.75,	-3.25,	1.037999,	100,	1,	100,	-3.73,	0,	0,	0,	0,	0,	0,	0,	0,	0,	0,	0],
		[438,	74,	9.04,	45.1,	-16.18,	1.038705,	100,	1,	100,	0,	0,	0,	0,	0,	0,	0,	0,	0,	0,	0,	0],
		[439,	308.6,	-59.31,	175.16,	-69.21,	1.072491,	100,	1,	400,	0,	0,	0,	0,	0,	0,	0,	0,	0,	0,	0,	0],
		[440,	83.1,	-1.51,	55.73,	-19.01,	1.028093,	100,	1,	120,	0,	0,	0,	0,	0,	0,	0,	0,	0,	0,	0,	0],
		[442,	-40.35,	-0.32,	1.95,	-0.93,	1.011727,	100,	1,	100,	-53.8,	0,	0,	0,	0,	0,	0,	0,	0,	0,	0,	0],
		[447,	37.7,	2.42,	16.84,	-8.04,	1.035215,	100,	1,	40,	0,	0,	0,	0,	0,	0,	0,	0,	0,	0,	0,	0],
		[452,	-56.8,	16.67,	37.86,	-11.94,	1.013382,	100,	1,	100,	-75.73,	0,	0,	0,	0,	0,	0,	0,	0,	0,	0,	0],
		[453,	260.1,	69.83,	257.23,	-74.4,	1.024712,	100,	1,	540,	0,	0,	0,	0,	0,	0,	0,	0,	0,	0,	0,	0],
		[456,	-28.08,	-11.78,	44.8,	-39.81,	0.999847,	100,	1,	100,	-37.44,	0,	0,	0,	0,	0,	0,	0,	0,	0,	0,	0],
		[484,	229.5,	-43.46,	132.41,	-50.85,	1.054091,	100,	1,	300,	0,	0,	0,	0,	0,	0,	0,	0,	0,	0,	0,	0],
		[489,	-107.4,	-0.53,	6.28,	-4.82,	1.008032,	100,	1,	100,	-143.2,	0,	0,	0,	0,	0,	0,	0,	0,	0,	0,	0],
		[491,	105.4,	83.32,	94.56,	-28.1,	1.033193,	100,	1,	200,	0,	0,	0,	0,	0,	0,	0,	0,	0,	0,	0,	0],
		[505,	110.6,	-14.73,	37.34,	-58.33,	1.022173,	100,	1,	116.03,	0,	0,	0,	0,	0,	0,	0,	0,	0,	0,	0,	0],
		[511,	101.4,	-14.26,	94.38,	-28.04,	1.081589,	100,	1,	200,	0,	0,	0,	0,	0,	0,	0,	0,	0,	0,	0,	0],
		[515,	324.82,	28.39,	72.5,	-27.24,	1.045162,	100,	1,	700,	200,	0,	0,	0,	0,	0,	0,	0,	0,	0,	0,	0],
		[516,	539.4,	184.01,	261.79,	-106.67,	1.07129,	100,	1,	600,	200,	0,	0,	0,	0,	0,	0,	0,	0,	0,	0,	0],
		[518,	-410.3,	1.69,	85.63,	-37.21,	1.067615,	100,	1,	100,	-547.07,	0,	0,	0,	0,	0,	0,	0,	0,	0,	0,	0],
		[524,	69,	-13.09,	30.15,	-43.07,	1.046979,	100,	1,	72.45,	0,	0,	0,	0,	0,	0,	0,	0,	0,	0,	0,	0],
		[541,	118.2,	-15,	7.81,	-27.19,	1.03819,	100,	1,	124.19,	0,	0,	0,	0,	0,	0,	0,	0,	0,	0,	0,	0],
		[564,	-51.67,	-3.19,	18.47,	-19.35,	1.06702,	100,	1,	100,	-68.89,	0,	0,	0,	0,	0,	0,	0,	0,	0,	0,	0],
		[578,	-110.3,	6.59,	25.88,	-11.01,	1.042146,	100,	1,	100,	-147.07,	0,	0,	0,	0,	0,	0,	0,	0,	0,	0,	0],
		[583,	-270,	4.89,	17.88,	-7.03,	1.048595,	100,	1,	100,	-360,	0,	0,	0,	0,	0,	0,	0,	0,	0,	0,	0],
		[587,	246,	1.47,	185.56,	-59.39,	1.040079,	100,	1,	400,	133.33,	0,	0,	0,	0,	0,	0,	0,	0,	0,	0,	0],
		[590,	100.7,	135.79,	380.31,	-110.08,	1.065004,	100,	1,	300,	67.13,	0,	0,	0,	0,	0,	0,	0,	0,	0,	0,	0],
		[615,	38.2,	2.13,	17.09,	-7.79,	1.068592,	100,	1,	40,	0,	0,	0,	0,	0,	0,	0,	0,	0,	0,	0,	0],
		[616,	379.2,	31.85,	217.9,	-81.16,	1.04484,	100,	1,	480,	160,	0,	0,	0,	0,	0,	0,	0,	0,	0,	0,	0],
		[618,	670.3,	-26.77,	351.18,	-139.11,	1.022784,	100,	1,	800,	266.67,	0,	0,	0,	0,	0,	0,	0,	0,	0,	0,	0],
		[628,	152.4,	41.23,	78.79,	-31.69,	0.982057,	100,	1,	180,	0,	0,	0,	0,	0,	0,	0,	0,	0,	0,	0,	0],
		[636,	101.89,	2.48,	52.99,	-21.87,	1.04241,	100,	1,	120,	0,	0,	0,	0,	0,	0,	0,	0,	0,	0,	0,	0],
		[637,	21.3,	-0.33,	11.2,	-8.44,	1.031148,	100,	1,	22.32,	0,	0,	0,	0,	0,	0,	0,	0,	0,	0,	0,	0],
		[639,	-46.2,	106.37,	135.52,	-38.9,	1.033532,	100,	1,	100,	-61.6,	0,	0,	0,	0,	0,	0,	0,	0,	0,	0,	0],
		[642,	63.33,	-55.21,	90.13,	-93.03,	1.031368,	100,	1,	276.09,	0,	0,	0,	0,	0,	0,	0,	0,	0,	0,	0,	0],
		[648,	47.2,	2.22,	37.95,	-11.87,	1.02749,	100,	1,	80,	0,	0,	0,	0,	0,	0,	0,	0,	0,	0,	0,	0],
		[672,	67,	-0.69,	71.32,	-62.92,	1.02121,	100,	1,	205.81,	0,	0,	0,	0,	0,	0,	0,	0,	0,	0,	0,	0],
		[682,	37.4,	8.11,	38.77,	-11.06,	1.060787,	100,	1,	80,	0,	0,	0,	0,	0,	0,	0,	0,	0,	0,	0,	0],
		[686,	-21.65,	-8.24,	34.75,	-34.26,	1.013903,	100,	1,	100,	-28.86,	0,	0,	0,	0,	0,	0,	0,	0,	0,	0,	0],
		[692,	274.8,	-4.69,	182.17,	-62.79,	1.059006,	100,	1,	400,	133.33,	0,	0,	0,	0,	0,	0,	0,	0,	0,	0,	0],
		[697,	634.8,	27.98,	357.4,	-132.75,	1.031719,	100,	1,	800,	266.67,	0,	0,	0,	0,	0,	0,	0,	0,	0,	0,	0],
		[698,	274.8,	3.65,	129.94,	-53.91,	0.999662,	100,	1,	300,	100,	0,	0,	0,	0,	0,	0,	0,	0,	0,	0,	0],
		[709,	16,	-8.56,	22.23,	-20.83,	1.068875,	100,	1,	65.3,	0,	0,	0,	0,	0,	0,	0,	0,	0,	0,	0,	0],
		[711,	27.8,	52.62,	377.01,	-113.63,	1.070147,	100,	1,	100,	18.53,	0,	0,	0,	0,	0,	0,	0,	0,	0,	0,	0],
		[713,	99.3,	8.47,	53.98,	-20.79,	1.034791,	100,	1,	120,	0,	0,	0,	0,	0,	0,	0,	0,	0,	0,	0,	0],
		[714,	453.4,	62.78,	376.36,	-114.08,	1.065017,	100,	1,	800,	266.67,	0,	0,	0,	0,	0,	0,	0,	0,	0,	0,	0],
		[715,	323.1,	-67.84,	66.42,	-179.95,	1.021604,	100,	1,	366,	122,	0,	0,	0,	0,	0,	0,	0,	0,	0,	0,	0],
		[727,	384.26,	-63.12,	379.61,	-111.09,	1.070143,	100,	1,	800,	266.67,	0,	0,	0,	0,	0,	0,	0,	0,	0,	0,	0],
		[728,	70.8,	-18.79,	35.73,	-44.31,	1.030375,	100,	1,	74.28,	0,	0,	0,	0,	0,	0,	0,	0,	0,	0,	0,	0],
		[735,	170,	-27.79,	89.94,	-122.06,	1.026593,	100,	1,	178.5,	0,	0,	0,	0,	0,	0,	0,	0,	0,	0,	0,	0],
		[738,	90.79,	47.3,	107.86,	-95.15,	1.033376,	100,	1,	311.39,	34.6,	0,	0,	0,	0,	0,	0,	0,	0,	0,	0,	0],
		[739,	465.7,	-58.22,	212.97,	-93.45,	1.035442,	100,	1,	500,	166.67,	0,	0,	0,	0,	0,	0,	0,	0,	0,	0,	0],
		[749,	198.88,	4.93,	105.69,	-43.84,	1.053546,	100,	1,	240,	0,	0,	0,	0,	0,	0,	0,	0,	0,	0,	0,	0],
		[751,	65.9,	-20.17,	136.94,	-47.24,	1.020488,	100,	1,	300,	0,	0,	0,	0,	0,	0,	0,	0,	0,	0,	0,	0],
		[757,	116.7,	15.15,	51.3,	-23.41,	1.013994,	100,	1,	120,	0,	0,	0,	0,	0,	0,	0,	0,	0,	0,	0,	0],
		[763,	37.3,	5.58,	27.88,	-8.97,	1.042899,	100,	1,	60,	0,	0,	0,	0,	0,	0,	0,	0,	0,	0,	0,	0],
		[764,	138.3,	8.35,	174.17,	-71.12,	1.048246,	100,	1,	400,	133.33,	0,	0,	0,	0,	0,	0,	0,	0,	0,	0,	0],
		[765,	170.7,	20.09,	76.76,	-33.84,	1.017174,	100,	1,	180,	0,	0,	0,	0,	0,	0,	0,	0,	0,	0,	0,	0],
		[774,	134.4,	-8.34,	81.57,	-60.74,	1.038992,	100,	1,	141.12,	0,	0,	0,	0,	0,	0,	0,	0,	0,	0,	0,	0],
		[776,	-111.4,	5.14,	18.16,	-6.73,	1.023986,	100,	1,	100,	-148.53,	0,	0,	0,	0,	0,	0,	0,	0,	0,	0,	0],
		[778,	16.5,	-0.64,	12.37,	-9.36,	1.047837,	100,	1,	33.58,	0,	0,	0,	0,	0,	0,	0,	0,	0,	0,	0,	0],
		[779,	37.8,	12.06,	17.34,	-7.58,	1.039304,	100,	1,	45,	0,	0,	0,	0,	0,	0,	0,	0,	0,	0,	0,	0],
		[780,	50.8,	17.14,	37.43,	-12.32,	1.001975,	100,	1,	80,	0,	0,	0,	0,	0,	0,	0,	0,	0,	0,	0,	0],
		[791,	569.74,	-78,	567.63,	-167.48,	1.052091,	100,	1,	1200,	400,	0,	0,	0,	0,	0,	0,	0,	0,	0,	0,	0],
		[795,	58.4,	7.1,	36.75,	-13.04,	1.041931,	100,	1,	80,	0,	0,	0,	0,	0,	0,	0,	0,	0,	0,	0,	0],
		[796,	31.6,	19.62,	39,	-10.74,	1.01604,	100,	1,	80,	0,	0,	0,	0,	0,	0,	0,	0,	0,	0,	0,	0],
		[803,	-89.2,	9.91,	74.03,	-25.54,	1.04662,	100,	1,	100,	-118.93,	0,	0,	0,	0,	0,	0,	0,	0,	0,	0,	0],
		[807,	1597.5,	-195.51,	864.47,	-360.97,	1.053518,	100,	1,	2000,	666.67,	0,	0,	0,	0,	0,	0,	0,	0,	0,	0,	0],
		[813,	505.6,	0.16,	309.08,	-290.93,	1.037003,	100,	1,	602,	200.67,	0,	0,	0,	0,	0,	0,	0,	0,	0,	0,	0],
		[823,	1274.2,	287.09,	926.68,	-298.31,	1.039055,	100,	1,	2000,	666.67,	0,	0,	0,	0,	0,	0,	0,	0,	0,	0,	0],
		[828,	55.9,	-11.69,	20.87,	-22.43,	1.044382,	100,	1,	58.7,	0,	0,	0,	0,	0,	0,	0,	0,	0,	0,	0,	0],
		[831,	85.2,	16.49,	55.59,	-19.18,	1.003271,	100,	1,	120,	0,	0,	0,	0,	0,	0,	0,	0,	0,	0,	0,	0],
		[832,	507,	137.14,	264.71,	-102.83,	1.004583,	100,	1,	600,	200,	0,	0,	0,	0,	0,	0,	0,	0,	0,	0,	0],
		[837,	44,	7.99,	27.19,	-9.66,	1.022737,	100,	1,	60,	0,	0,	0,	0,	0,	0,	0,	0,	0,	0,	0,	0],
		[844,	97.5,	14.12,	54.35,	-20.47,	1.064419,	100,	1,	120,	0,	0,	0,	0,	0,	0,	0,	0,	0,	0,	0,	0],
		[848,	4.03,	-7.12,	49.63,	-38.12,	1.011431,	100,	1,	100,	2.69,	0,	0,	0,	0,	0,	0,	0,	0,	0,	0,	0],
		[849,	8.7,	-1.18,	6.45,	-4.91,	1.037264,	100,	1,	17.57,	0,	0,	0,	0,	0,	0,	0,	0,	0,	0,	0,	0],
		[851,	59.56,	41.16,	96.64,	-27.81,	1.018845,	100,	1,	200,	0,	0,	0,	0,	0,	0,	0,	0,	0,	0,	0,	0],
		[858,	855.6,	160.89,	440.67,	-172.15,	1.028813,	100,	1,	1000,	333.33,	0,	0,	0,	0,	0,	0,	0,	0,	0,	0,	0],
		[861,	55.8,	10.72,	57.98,	-16.68,	1.050818,	100,	1,	120,	0,	0,	0,	0,	0,	0,	0,	0,	0,	0,	0,	0],
		[875,	343.5,	45.89,	228.16,	-78.19,	1.038959,	100,	1,	500,	166.67,	0,	0,	0,	0,	0,	0,	0,	0,	0,	0,	0],
		[888,	181.98,	-7.29,	138.6,	-45.27,	1.037604,	100,	1,	300,	100,	0,	0,	0,	0,	0,	0,	0,	0,	0,	0,	0],
		[891,	1702.8,	696.58,	1097.41,	-373.91,	1.062964,	100,	1,	2400,	800,	0,	0,	0,	0,	0,	0,	0,	0,	0,	0,	0],
		[894,	264.67,	69.9,	141.93,	-57.74,	1.054199,	100,	1,	320,	0,	0,	0,	0,	0,	0,	0,	0,	0,	0,	0,	0],
		[896,	-2.7,	-2.25,	8.6,	-11.4,	1.021987,	100,	1,	100,	-3.6,	0,	0,	0,	0,	0,	0,	0,	0,	0,	0,	0],
		[913,	1249.4,	683.52,	772.11,	-269.94,	1.026545,	100,	1,	1700,	566.67,	0,	0,	0,	0,	0,	0,	0,	0,	0,	0,	0],
		[916,	230.2,	-24.09,	134.45,	-49.76,	1.022135,	100,	1,	300,	0,	0,	0,	0,	0,	0,	0,	0,	0,	0,	0,	0],
		[917,	32,	3.93,	18.22,	-6.73,	1.061631,	100,	1,	40,	0,	0,	0,	0,	0,	0,	0,	0,	0,	0,	0,	0],
		[926,	420,	11.01,	201.12,	-87.96,	1.008066,	100,	1,	472,	157.33,	0,	0,	0,	0,	0,	0,	0,	0,	0,	0,	0],
		[927,	27.4,	-2.86,	28.69,	-8.16,	1.067901,	100,	1,	60,	0,	0,	0,	0,	0,	0,	0,	0,	0,	0,	0,	0],
		[930,	679.6,	-118,	406.66,	-144.75,	1.058189,	100,	1,	900,	300,	0,	0,	0,	0,	0,	0,	0,	0,	0,	0,	0],
		[972,	1221.2,	407.52,	934.73,	-291.52,	1.078612,	100,	1,	2000,	666.67,	0,	0,	0,	0,	0,	0,	0,	0,	0,	0,	0],
		[974,	83.89,	18.08,	54.36,	-20.21,	1.033045,	100,	1,	120,	0,	0,	0,	0,	0,	0,	0,	0,	0,	0,	0,	0],
		[976,	21.3,	-5.46,	36.02,	-35.35,	1.024328,	100,	1,	107.83,	0,	0,	0,	0,	0,	0,	0,	0,	0,	0,	0,	0],
		[978,	14.9,	0.14,	6.43,	-2.99,	1.017319,	100,	1,	15.15,	0,	0,	0,	0,	0,	0,	0,	0,	0,	0,	0,	0],
		[983,	1034.8,	-256.65,	948.36,	-277.27,	1.078039,	100,	1,	2000,	666.67,	0,	0,	0,	0,	0,	0,	0,	0,	0,	0,	0],
		[984,	1029.2,	8.1,	738.93,	-240.84,	1.031963,	100,	1,	1600,	533.33,	0,	0,	0,	0,	0,	0,	0,	0,	0,	0,	0],
		[991,	21.68,	2.06,	16.83,	-8.05,	1.001634,	100,	1,	40,	0,	0,	0,	0,	0,	0,	0,	0,	0,	0,	0,	0],
		[992,	14.96,	6.97,	25.97,	-10.87,	1.030255,	100,	1,	60,	0,	0,	0,	0,	0,	0,	0,	0,	0,	0,	0,	0],
		[993,	-136.9,	5.75,	17.85,	-7.07,	1.037248,	100,	1,	100,	-182.53,	0,	0,	0,	0,	0,	0,	0,	0,	0,	0,	0],
		[1001,	92.1,	23.68,	55.02,	-19.81,	1.069874,	100,	1,	120,	0,	0,	0,	0,	0,	0,	0,	0,	0,	0,	0,	0],
		[1002,	171,	10.18,	89.55,	-35.15,	1.03837,	100,	1,	200,	0,	0,	0,	0,	0,	0,	0,	0,	0,	0,	0,	0],
		[1004,	86.4,	35.09,	43.99,	-17.4,	0.99944,	100,	1,	100,	0,	0,	0,	0,	0,	0,	0,	0,	0,	0,	0,	0],
		[1021,	-179.3,	8.75,	58.34,	-16.23,	1.012345,	100,	1,	100,	-239.07,	0,	0,	0,	0,	0,	0,	0,	0,	0,	0,	0],
		[1029,	138.6,	5.85,	90.64,	-31.73,	1.037886,	100,	1,	200,	0,	0,	0,	0,	0,	0,	0,	0,	0,	0,	0,	0],
		[1030,	164.94,	9.31,	71.66,	-27.89,	1.007808,	100,	1,	400,	100,	0,	0,	0,	0,	0,	0,	0,	0,	0,	0,	0],
		[1036,	202.5,	0.73,	137.39,	-46.45,	1.037074,	100,	1,	300,	100,	0,	0,	0,	0,	0,	0,	0,	0,	0,	0,	0],
		[1043,	829.5,	49.52,	387.88,	-163.4,	1.027465,	100,	1,	900,	300,	0,	0,	0,	0,	0,	0,	0,	0,	0,	0,	0],
		[1050,	337.91,	1.63,	173.5,	-71.79,	1.055375,	100,	1,	518.72,	252.05,	0,	0,	0,	0,	0,	0,	0,	0,	0,	0,	0],
		[1082,	364.4,	56.84,	171.62,	-73.5,	1.027941,	100,	1,	400,	133.33,	0,	0,	0,	0,	0,	0,	0,	0,	0,	0,	0],
		[1083,	91.8,	8.04,	54.91,	-19.88,	1.050507,	100,	1,	120,	0,	0,	0,	0,	0,	0,	0,	0,	0,	0,	0,	0],
		[1088,	4.6,	1.01,	8.06,	-3.66,	1.025882,	100,	1,	45.99,	0,	0,	0,	0,	0,	0,	0,	0,	0,	0,	0,	0],
		[1093,	837,	97.07,	550.69,	-185.15,	1.024587,	100,	1,	1200,	400,	0,	0,	0,	0,	0,	0,	0,	0,	0,	0,	0],
		[1097,	17.5,	-0.91,	6.17,	-6.64,	1.013606,	100,	1,	18.38,	0,	0,	0,	0,	0,	0,	0,	0,	0,	0,	0,	0],
		[1098,	93.35,	-19.73,	91.42,	-31.24,	1.104358,	100,	1,	200,	66.67,	0,	0,	0,	0,	0,	0,	0,	0,	0,	0,	0],
		[1100,	58.2,	6.13,	36.8,	-13.01,	1.042301,	100,	1,	80,	0,	0,	0,	0,	0,	0,	0,	0,	0,	0,	0,	0],
		[1102,	-124.15,	12.14,	38.05,	-11.59,	1.048163,	100,	1,	100,	-165.54,	0,	0,	0,	0,	0,	0,	0,	0,	0,	0,	0],
		[1103,	405.69,	-35.07,	376.66,	-112.66,	1.043526,	100,	1,	800,	266.67,	0,	0,	0,	0,	0,	0,	0,	0,	0,	0,	0],
		[1117,	744.1,	-245.23,	307.47,	-487.11,	1.009173,	100,	1,	864,	288,	0,	0,	0,	0,	0,	0,	0,	0,	0,	0,	0],
		[1119,	298.7,	-10.62,	126.49,	-57.33,	1.044725,	100,	1,	300,	100,	0,	0,	0,	0,	0,	0,	0,	0,	0,	0,	0],
		[1121,	289.79,	-11.59,	158.2,	-62.81,	1.017488,	100,	1,	360,	0,	0,	0,	0,	0,	0,	0,	0,	0,	0,	0,	0],
		[1122,	75.2,	2.31,	68,	-56.08,	1.043868,	100,	1,	190.28,	0,	0,	0,	0,	0,	0,	0,	0,	0,	0,	0,	0],
		[1125,	129.6,	13.26,	114.57,	-34.74,	1.04319,	100,	1,	240,	0,	0,	0,	0,	0,	0,	0,	0,	0,	0,	0,	0],
		[1131,	667.5,	108.89,	407.66,	-143.61,	1.036981,	100,	1,	900,	300,	0,	0,	0,	0,	0,	0,	0,	0,	0,	0,	0],
		[1138,	930.3,	93.88,	432.44,	-180.7,	1.088765,	100,	1,	1000,	333.33,	0,	0,	0,	0,	0,	0,	0,	0,	0,	0,	0],
		[1139,	175.48,	49.36,	107.89,	-41.5,	1.054186,	100,	1,	240,	0,	0,	0,	0,	0,	0,	0,	0,	0,	0,	0,	0],
		[1145,	173.47,	-1.29,	153.07,	-144.24,	1.040382,	100,	1,	452.53,	37.71,	0,	0,	0,	0,	0,	0,	0,	0,	0,	0,	0],
		[1173,	-124.7,	-0.42,	1.85,	-0.88,	1.018544,	100,	1,	100,	-166.27,	0,	0,	0,	0,	0,	0,	0,	0,	0,	0,	0],
		[1174,	26.8,	5.65,	18.61,	-6.28,	1.002801,	100,	1,	40,	0,	0,	0,	0,	0,	0,	0,	0,	0,	0,	0,	0],
		[1175,	309.54,	3.13,	108.35,	-39.12,	1.038334,	100,	1,	700,	200,	0,	0,	0,	0,	0,	0,	0,	0,	0,	0,	0],
		[1176,	6.7,	13.93,	94.13,	-28.09,	1.016193,	100,	1,	100,	4.46,	0,	0,	0,	0,	0,	0,	0,	0,	0,	0,	0],
		[1184,	329.2,	159.58,	178.02,	-67.55,	1.037371,	100,	1,	400,	0,	0,	0,	0,	0,	0,	0,	0,	0,	0,	0,	0],
		[1220,	107.4,	57.33,	84.07,	-26.48,	1.008655,	100,	1,	180,	0,	0,	0,	0,	0,	0,	0,	0,	0,	0,	0,	0],
		[1225,	282.8,	18.73,	118.84,	-55.64,	1.051668,	100,	1,	290.43,	0,	0,	0,	0,	0,	0,	0,	0,	0,	0,	0,	0],
		[1237,	1504.8,	346.47,	906.61,	-319.44,	1.103909,	100,	1,	2000,	666.67,	0,	0,	0,	0,	0,	0,	0,	0,	0,	0,	0],
		[1241,	46.13,	-7.09,	22.29,	-20.98,	1.019582,	100,	1,	65.63,	0,	0,	0,	0,	0,	0,	0,	0,	0,	0,	0,	0],
...
	])

	## branch data
	#,	fbus,	tbus,	r,	x,	b,	rateA,	rateB,	rateC,	ratio,	angle,	status,	angmin,	angmax
    ppc['branch'] = array([
		[5147,	3097,	0.0006,	0.00616,	0,	823,	0,	0,	0,	0,	1,	-360,	360],
		[5147,	8763,	0.0005,	0.0074,	0,	921,	0,	0,	0,	0,	1,	-360,	360],
		[2169,	3124,	0.00107,	0.00626,	0,	476,	0,	0,	0,	0,	1,	-360,	360],
		[2169,	3234,	0.000841,	0.0055,	0,	476,	0,	0,	0,	0,	1,	-360,	360],
		[3517,	711,	0.00143,	0.01563,	0,	1645,	0,	0,	0,	0,	1,	-360,	360],
		[3517,	4533,	0.00146,	0.01692,	0,	1711,	0,	0,	0,	0,	1,	-360,	360],
		[427,	5425,	7e-05,	0.00057,	0,	1711,	0,	0,	0,	0,	1,	-360,	360],
		[427,	4704,	6e-05,	0.00056,	0,	1514,	0,	0,	0,	0,	1,	-360,	360],
		[5960,	7431,	0.003349,	0.01656,	0,	0,	0,	0,	0,	0,	1,	-360,	360],
		[5960,	3186,	0.003409,	0.016211,	0,	0,	0,	0,	0,	0,	1,	-360,	360],
		[4481,	7431,	0.003479,	0.01586,	0,	0,	0,	0,	0,	0,	1,	-360,	360],
		[4481,	3186,	0.003099,	0.017969,	0,	0,	0,	0,	0,	0,	1,	-360,	360],
		[531,	9203,	0.00127,	0.01842,	0,	823,	0,	0,	0,	0,	1,	-360,	360],
		[531,	835,	0.00126,	0.01847,	0,	1547,	0,	0,	0,	0,	1,	-360,	360],
		[1656,	118,	0.0013,	0.01808,	0,	1218,	0,	0,	0,	0,	1,	-360,	360],
		[1656,	3449,	0.00131,	0.01765,	0,	1744,	0,	0,	0,	0,	1,	-360,	360],
		[5084,	1809,	0.00065,	0.01311,	0,	2793,	0,	0,	0,	0,	1,	-360,	360],
		[5084,	6398,	0.00067,	0.00974,	0,	2598,	0,	0,	0,	0,	1,	-360,	360],
		[5205,	7833,	0.00236,	0.01418,	0,	553,	0,	0,	0,	0,	1,	-360,	360],
		[5205,	7770,	0.002169,	0.015909,	0,	514,	0,	0,	0,	0,	1,	-360,	360],
		[354,	1278,	0.00027,	0.00254,	0,	1349,	0,	0,	0,	0,	1,	-360,	360],
		[354,	7617,	0.00027,	0.00259,	0,	1119,	0,	0,	0,	0,	1,	-360,	360],
		[2611,	1278,	0.00033,	0.00302,	0,	1448,	0,	0,	0,	0,	1,	-360,	360],
		[2611,	905,	0.00029,	0.00312,	0,	1613,	0,	0,	0,	0,	1,	-360,	360],
		[1842,	6542,	0.000289,	0.00137,	0,	533,	0,	0,	0,	0,	1,	-360,	360],
		[1842,	7622,	0.000219,	0.00263,	0,	0,	0,	0,	0,	0,	1,	-360,	360],
		[2134,	6542,	0.000289,	0.001341,	0,	457,	0,	0,	0,	0,	1,	-360,	360],
		[2134,	8785,	0.000229,	0.00257,	0,	0,	0,	0,	0,	0,	1,	-360,	360],
		[6613,	6542,	0.000841,	0.00689,	0,	514,	0,	0,	0,	0,	1,	-360,	360],
		[6613,	1651,	0.000979,	0.00586,	0,	495,	0,	0,	0,	0,	1,	-360,	360],
		[5773,	6542,	0.00014,	0.0012,	0,	0,	0,	0,	0,	0,	1,	-360,	360],
		[5773,	7840,	0.000211,	0.001539,	0,	0,	0,	0,	0,	0,	1,	-360,	360],
		[5214,	6542,	0.000401,	0.004901,	0,	0,	0,	0,	0,	0,	1,	-360,	360],
		[5214,	7840,	0.000219,	0.00151,	0,	533,	0,	0,	0,	0,	1,	-360,	360],
		[8072,	6542,	0.000729,	0.004539,	0,	495,	0,	0,	0,	0,	1,	-360,	360],
		[8072,	2759,	0.00062,	0.00482,	0,	495,	0,	0,	0,	0,	1,	-360,	360],
		[2971,	6069,	0.00052,	0.00407,	0,	1481,	0,	0,	0,	0,	1,	-360,	360],
		[2971,	3445,	0.00034,	0.00502,	0,	1843,	0,	0,	0,	0,	1,	-360,	360],
		[7561,	6069,	0.00065,	0.00698,	0,	1711,	0,	0,	0,	0,	1,	-360,	360],
		[7561,	8825,	0.00059,	0.00806,	0,	1678,	0,	0,	0,	0,	1,	-360,	360],
		[6748,	8864,	0.00063,	0.00464,	0,	495,	0,	0,	0,	0,	1,	-360,	360],
		[6748,	5078,	0.000599,	0.005099,	0,	533,	0,	0,	0,	0,	1,	-360,	360],
		[4956,	4785,	0.00064,	0.00307,	0,	0,	0,	0,	0,	0,	1,	-360,	360],
		[4956,	7667,	0.000659,	0.003,	0,	0,	0,	0,	0,	0,	1,	-360,	360],
		[8619,	6775,	0.00053,	0.00528,	0,	1086,	0,	0,	0,	0,	1,	-360,	360],
		[8619,	8195,	0.00056,	0.0053,	0,	1283,	0,	0,	0,	0,	1,	-360,	360],
		[3107,	4785,	0.0018,	0.007919,	0,	0,	0,	0,	0,	0,	1,	-360,	360],
		[3107,	7154,	0.001651,	0.00862,	0,	0,	0,	0,	0,	0,	1,	-360,	360],
		[5437,	6775,	0.00045,	0.00545,	0,	1382,	0,	0,	0,	0,	1,	-360,	360],
		[5437,	905,	0.00052,	0.00476,	0,	1547,	0,	0,	0,	0,	1,	-360,	360],
		[2282,	6876,	0.01286,	0.037421,	0,	0,	0,	0,	0,	0,	1,	-360,	360],
		[2282,	5654,	0.032397,	0.123,	0,	0,	0,	0,	0,	0,	1,	-360,	360],
		[474,	6876,	0.032851,	0.069727,	0,	0,	0,	0,	0,	0,	1,	-360,	360],
		[474,	8045,	0.059942,	0.112802,	0,	0,	0,	0,	0,	0,	1,	-360,	360],
		[7917,	7472,	0.00011,	0.00109,	0,	1086,	0,	0,	0,	0,	1,	-360,	360],
		[7917,	8899,	0.00011,	0.00107,	0,	1185,	0,	0,	0,	0,	1,	-360,	360],
		[6225,	7681,	0.000461,	0.00395,	0,	629,	0,	0,	0,	0,	1,	-360,	360],
		[6225,	1508,	0.000599,	0.003789,	0,	591,	0,	0,	0,	0,	1,	-360,	360],
		[7118,	6568,	0.00173,	0.01542,	0,	987,	0,	0,	0,	0,	1,	-360,	360],
		[7118,	4346,	0.00166,	0.02083,	0,	1119,	0,	0,	0,	0,	1,	-360,	360],
		[3469,	8850,	0.006314,	0.018488,	0,	0,	0,	0,	0,	0,	1,	-360,	360],
		[3469,	1997,	0.015727,	0.037669,	0,	0,	0,	0,	0,	0,	1,	-360,	360],
		[7556,	7058,	0.00374,	0.02095,	0,	800,	0,	0,	0,	0,	1,	-360,	360],
		[7556,	4324,	0.00511,	0.019461,	0,	800,	0,	0,	0,	0,	1,	-360,	360],
		[1069,	2867,	0.011281,	0.050771,	0,	457,	0,	0,	0,	0,	1,	-360,	360],
		[1069,	2588,	0.0115,	0.049719,	0,	438,	0,	0,	0,	0,	1,	-360,	360],
		[3945,	2867,	0.011719,	0.048659,	0,	438,	0,	0,	0,	0,	1,	-360,	360],
		[3945,	2588,	0.01193,	0.047599,	0,	438,	0,	0,	0,	0,	1,	-360,	360],
		[132,	2962,	0.00064,	0.00715,	0,	1481,	0,	0,	0,	0,	1,	-360,	360],
		[132,	4393,	0.00089,	0.00712,	0,	1283,	0,	0,	0,	0,	1,	-360,	360],
		[5044,	693,	0.00048,	0.00555,	0,	987,	0,	0,	0,	0,	1,	-360,	360],
		[5044,	7860,	0.00047,	0.00566,	0,	1086,	0,	0,	0,	0,	1,	-360,	360],
		[6883,	693,	0.00046,	0.00524,	0,	1053,	0,	0,	0,	0,	1,	-360,	360],
		[6883,	7860,	0.00052,	0.00514,	0,	1053,	0,	0,	0,	0,	1,	-360,	360],
		[1456,	4503,	0.00438,	0.010686,	0,	0,	0,	0,	0,	0,	1,	-360,	360],
		[1456,	6658,	0.031347,	0.062653,	0,	0,	0,	0,	0,	0,	1,	-360,	360],
		[6494,	4945,	0.00029,	0.00298,	0,	1613,	0,	0,	0,	0,	1,	-360,	360],
		[6494,	6080,	0.0003,	0.00291,	0,	1514,	0,	0,	0,	0,	1,	-360,	360],
		[1384,	9010,	0.00155,	0.01529,	0,	1185,	0,	0,	0,	0,	1,	-360,	360],
		[1384,	3146,	0.00148,	0.0152,	0,	1283,	0,	0,	0,	0,	1,	-360,	360],
		[8697,	8142,	0.000169,	0.00096,	0,	312,	0,	0,	0,	0,	1,	-360,	360],
		[8697,	6195,	0.000182,	0.000942,	0,	312,	0,	0,	0,	0,	1,	-360,	360],
		[5665,	424,	0.00016,	0.00184,	0,	0,	0,	0,	0,	0,	1,	-360,	360],
		[5665,	7235,	0.00022,	0.00287,	0,	0,	0,	0,	0,	0,	1,	-360,	360],
		[3852,	6497,	0.00015,	0.00187,	0,	0,	0,	0,	0,	0,	1,	-360,	360],
		[3852,	4779,	0.00022,	0.00266,	0,	0,	0,	0,	0,	0,	1,	-360,	360],
		[674,	8885,	0.00138,	0.0174,	0,	1316,	0,	0,	0,	0,	1,	-360,	360],
		[674,	3115,	0.00272,	0.0288,	0,	1086,	0,	0,	0,	0,	1,	-360,	360],
		[8126,	5177,	0.00065,	0.01024,	0,	1843,	0,	0,	0,	0,	1,	-360,	360],
		[8126,	6007,	0.00073,	0.01004,	0,	1876,	0,	0,	0,	0,	1,	-360,	360],
		[8935,	5177,	0.00075,	0.00983,	0,	1909,	0,	0,	0,	0,	1,	-360,	360],
		[8935,	6007,	0.00076,	0.00963,	0,	1909,	0,	0,	0,	0,	1,	-360,	360],
		[7146,	7388,	0.00042,	0.02666,	0,	1185,	0,	0,	0,	0,	1,	-360,	360],
		[4003,	8855,	0.00029,	0.0026,	0,	0,	0,	0,	0,	0,	1,	-360,	360],
		[4003,	5781,	0.00022,	0.00303,	0,	1185,	0,	0,	0,	0,	1,	-360,	360],
		[6996,	3761,	0.001,	0.006159,	0,	0,	0,	0,	0,	0,	1,	-360,	360],
		[6996,	9108,	0.00113,	0.00657,	0,	533,	0,	0,	0,	0,	1,	-360,	360],
		[1212,	8258,	0.0013,	0.01277,	0,	1316,	0,	0,	0,	0,	1,	-360,	360],
		[1212,	7330,	0.00163,	0.01808,	0,	1382,	0,	0,	0,	0,	1,	-360,	360],
		[8644,	106,	0.00047,	0.00406,	0,	1316,	0,	0,	0,	0,	1,	-360,	360],
		[8644,	5883,	0.00235,	0.02343,	0,	1316,	0,	0,	0,	0,	1,	-360,	360],
		[97,	6413,	0.00036,	0.00445,	0,	1547,	0,	0,	0,	0,	1,	-360,	360],
		[97,	1644,	0.00017,	0.0025,	0,	1909,	0,	0,	0,	0,	1,	-360,	360],
		[4379,	6413,	0.00036,	0.00436,	0,	1580,	0,	0,	0,	0,	1,	-360,	360],
		[4379,	3483,	0.00017,	0.00255,	0,	1810,	0,	0,	0,	0,	1,	-360,	360],
		[1885,	3208,	0.00096,	0.00995,	0,	1349,	0,	0,	0,	0,	1,	-360,	360],
		[1885,	6790,	0.00152,	0.01949,	0,	1382,	0,	0,	0,	0,	1,	-360,	360],
		[5314,	3208,	0.00094,	0.01014,	0,	1251,	0,	0,	0,	0,	1,	-360,	360],
		[5314,	6790,	0.00149,	0.01986,	0,	1415,	0,	0,	0,	0,	1,	-360,	360],
		[2885,	3208,	0.00107,	0.01243,	0,	1152,	0,	0,	0,	0,	1,	-360,	360],
		[2885,	2585,	0.00102,	0.01034,	0,	1218,	0,	0,	0,	0,	1,	-360,	360],
		[3717,	4848,	0.0047,	0.02061,	0,	438,	0,	0,	0,	0,	1,	-360,	360],
		[3717,	3688,	0.00739,	0.040531,	0,	400,	0,	0,	0,	0,	1,	-360,	360],
		[6064,	8640,	0.00049,	0.00611,	0,	1942,	0,	0,	0,	0,	1,	-360,	360],
		[6064,	7330,	0.00035,	0.00431,	0,	1547,	0,	0,	0,	0,	1,	-360,	360],
		[5377,	1029,	0.00261,	0.01344,	0,	419,	0,	0,	0,	0,	1,	-360,	360],
		[5377,	3525,	0.003521,	0.019591,	0,	419,	0,	0,	0,	0,	1,	-360,	360],
		[6870,	3431,	0.0025,	0.01419,	0,	0,	0,	0,	0,	0,	1,	-360,	360],
		[6870,	5046,	0.00287,	0.0237,	0,	381,	0,	0,	0,	0,	1,	-360,	360],
		[6693,	6743,	0.00088,	0.00956,	0,	1547,	0,	0,	0,	0,	1,	-360,	360],
		[6693,	287,	0.00095,	0.00877,	0,	1382,	0,	0,	0,	0,	1,	-360,	360],
		[2053,	752,	0.00332,	0.020651,	0,	457,	0,	0,	0,	0,	1,	-360,	360],
		[2053,	3048,	0.003969,	0.018781,	0,	457,	0,	0,	0,	0,	1,	-360,	360],
		[2893,	2738,	0.002849,	0.014909,	0,	438,	0,	0,	0,	0,	1,	-360,	360],
		[2893,	1575,	0.00439,	0.02451,	0,	438,	0,	0,	0,	0,	1,	-360,	360],
		[1524,	8687,	0.0002,	0.0018,	0,	0,	0,	0,	0,	0,	1,	-360,	360],
		[1524,	8393,	0.00025,	0.00261,	0,	0,	0,	0,	0,	0,	1,	-360,	360],
		[7369,	8687,	0.0002,	0.00176,	0,	0,	0,	0,	0,	0,	1,	-360,	360],
		[7369,	139,	0.00025,	0.00255,	0,	1909,	0,	0,	0,	0,	1,	-360,	360],
		[1019,	6176,	0.012488,	0.047413,	0,	0,	0,	0,	0,	0,	1,	-360,	360],
		[1019,	7177,	0.010479,	0.027711,	0,	0,	0,	0,	0,	0,	1,	-360,	360],
		[2607,	7458,	0.00044,	0.00428,	0,	1810,	0,	0,	0,	0,	1,	-360,	360],
		[2607,	1337,	0.00036,	0.00475,	0,	0,	0,	0,	0,	0,	1,	-360,	360],
		[4735,	5239,	0.00058,	0.00534,	0,	1876,	0,	0,	0,	0,	1,	-360,	360],
		[4735,	3145,	0.00054,	0.00589,	0,	1843,	0,	0,	0,	0,	1,	-360,	360],
		[2941,	1429,	0.00206,	0.02057,	0,	1152,	0,	0,	0,	0,	1,	-360,	360],
		[2941,	1542,	0.00077,	0.00872,	0,	954,	0,	0,	0,	0,	1,	-360,	360],
		[3773,	9183,	0.00161,	0.01963,	0,	1349,	0,	0,	0,	0,	1,	-360,	360],
		[3773,	1542,	0.00075,	0.00888,	0,	1382,	0,	0,	0,	0,	1,	-360,	360],
		[1937,	7261,	0.00016,	0.00152,	0,	1645,	0,	0,	0,	0,	1,	-360,	360],
		[1937,	5479,	0.00019,	0.00163,	0,	1711,	0,	0,	0,	0,	1,	-360,	360],
		[5473,	7261,	0.00015,	0.0016,	0,	1547,	0,	0,	0,	0,	1,	-360,	360],
		[5473,	5479,	0.00015,	0.00183,	0,	1645,	0,	0,	0,	0,	1,	-360,	360],
		[3648,	3290,	0.00121,	0.01426,	0,	1415,	0,	0,	0,	0,	1,	-360,	360],
		[3648,	5523,	0.00116,	0.01456,	0,	1448,	0,	0,	0,	0,	1,	-360,	360],
		[451,	144,	0.00068,	0.00727,	0,	1777,	0,	0,	0,	0,	1,	-360,	360],
		[451,	1601,	0.0007,	0.00734,	0,	1876,	0,	0,	0,	0,	1,	-360,	360],
		[7898,	144,	0.00076,	0.00712,	0,	1580,	0,	0,	0,	0,	1,	-360,	360],
		[7898,	1601,	0.0008,	0.00719,	0,	1909,	0,	0,	0,	0,	1,	-360,	360],
		[2105,	1582,	0.0002,	0.0022,	0,	1218,	0,	0,	0,	0,	1,	-360,	360],
		[2105,	7416,	0.0002,	0.0022,	0,	1251,	0,	0,	0,	0,	1,	-360,	360],
		[270,	2046,	0.000205,	0.00215,	0,	1415,	0,	0,	0,	0,	1,	-360,	360],
		[270,	7416,	0.000205,	0.00215,	0,	1448,	0,	0,	0,	0,	1,	-360,	360],
		[5938,	8433,	0.00053,	0.00589,	0,	1316,	0,	0,	0,	0,	1,	-360,	360],
		[5938,	816,	0.00046,	0.00675,	0,	1119,	0,	0,	0,	0,	1,	-360,	360],
		[8539,	8433,	0.00054,	0.00577,	0,	1316,	0,	0,	0,	0,	1,	-360,	360],
		[8539,	816,	0.00045,	0.00625,	0,	1086,	0,	0,	0,	0,	1,	-360,	360],
		[1654,	1544,	0.00275,	0.02752,	0,	1382,	0,	0,	0,	0,	1,	-360,	360],
		[1654,	7674,	0.00184,	0.01515,	0,	1316,	0,	0,	0,	0,	1,	-360,	360],
		[2323,	4150,	0.00438,	0.02432,	0,	0,	0,	0,	0,	0,	1,	-360,	360],
		[2323,	599,	0.0043,	0.01949,	0,	0,	0,	0,	0,	0,	1,	-360,	360],
		[8376,	6999,	0.00033,	0.00269,	0,	1218,	0,	0,	0,	0,	1,	-360,	360],
		[8376,	4903,	0.00243,	0.01904,	0,	1119,	0,	0,	0,	0,	1,	-360,	360],
		[942,	6999,	0.00034,	0.00263,	0,	1119,	0,	0,	0,	0,	1,	-360,	360],
		[942,	4903,	0.00248,	0.01864,	0,	1086,	0,	0,	0,	0,	1,	-360,	360],
		[6754,	6190,	0.00122,	0.01249,	0,	987,	0,	0,	0,	0,	1,	-360,	360],
		[6754,	4055,	0.00106,	0.01031,	0,	1053,	0,	0,	0,	0,	1,	-360,	360],
		[3313,	6190,	0.00119,	0.01273,	0,	987,	0,	0,	0,	0,	1,	-360,	360],
		[3313,	4055,	0.00108,	0.01009,	0,	1086,	0,	0,	0,	0,	1,	-360,	360],
		[1383,	4401,	0.001039,	0.013711,	0,	0,	0,	0,	0,	0,	1,	-360,	360],
		[1383,	5145,	0.00114,	0.011409,	0,	0,	0,	0,	0,	0,	1,	-360,	360],
		[7851,	5878,	0.001021,	0.013969,	0,	0,	0,	0,	0,	0,	1,	-360,	360],
		[7851,	5145,	0.001169,	0.011159,	0,	0,	0,	0,	0,	0,	1,	-360,	360],
		[8001,	8201,	0,	0.000271,	0,	0,	0,	0,	0,	0,	1,	-360,	360],
		[2322,	8201,	0,	0.000271,	0,	0,	0,	0,	0,	0,	1,	-360,	360],
		[843,	154,	0.009372,	0.035702,	0,	0,	0,	0,	0,	0,	1,	-360,	360],
		[843,	3598,	0.029157,	0.103686,	0,	0,	0,	0,	0,	0,	1,	-360,	360],
		[529,	5527,	0.00065,	0.00673,	0,	1514,	0,	0,	0,	0,	1,	-360,	360],
		[529,	4164,	0.00066,	0.00658,	0,	1678,	0,	0,	0,	0,	1,	-360,	360],
		[3529,	2487,	0.000969,	0.006021,	0,	553,	0,	0,	0,	0,	1,	-360,	360],
		[3529,	4167,	0.00099,	0.005901,	0,	381,	0,	0,	0,	0,	1,	-360,	360],
		[1162,	8598,	0.00088,	0.006599,	0,	0,	0,	0,	0,	0,	1,	-360,	360],
		[1162,	5325,	0.00086,	0.006729,	0,	495,	0,	0,	0,	0,	1,	-360,	360],
		[8690,	3277,	9e-05,	0.00077,	0,	1711,	0,	0,	0,	0,	1,	-360,	360],
		[8690,	4226,	9e-05,	0.00078,	0,	1580,	0,	0,	0,	0,	1,	-360,	360],
		[4922,	3277,	8e-05,	0.00082,	0,	1481,	0,	0,	0,	0,	1,	-360,	360],
		[4922,	7617,	8e-05,	0.00076,	0,	1251,	0,	0,	0,	0,	1,	-360,	360],
		[6759,	5527,	9e-05,	0.00074,	0,	1613,	0,	0,	0,	0,	1,	-360,	360],
		[6759,	4226,	9e-05,	0.00073,	0,	1251,	0,	0,	0,	0,	1,	-360,	360],
		[4088,	2487,	0.00062,	0.003781,	0,	0,	0,	0,	0,	0,	1,	-360,	360],
		[4088,	782,	0.000599,	0.0035,	0,	553,	0,	0,	0,	0,	1,	-360,	360],
		[6871,	8598,	0.00064,	0.00274,	0,	0,	0,	0,	0,	0,	1,	-360,	360],
		[6871,	1346,	0.000651,	0.00268,	0,	610,	0,	0,	0,	0,	1,	-360,	360],
		[6813,	1369,	0.00055,	0.00685,	0,	1777,	0,	0,	0,	0,	1,	-360,	360],
		[6813,	376,	0.00061,	0.00639,	0,	1843,	0,	0,	0,	0,	1,	-360,	360],
		[6019,	5527,	0.00042,	0.00523,	0,	1514,	0,	0,	0,	0,	1,	-360,	360],
		[6019,	8334,	0.00045,	0.00605,	0,	1481,	0,	0,	0,	0,	1,	-360,	360],
		[5693,	3277,	0.0003,	0.00228,	0,	1448,	0,	0,	0,	0,	1,	-360,	360],
		[5693,	8899,	0.00026,	0.00264,	0,	1218,	0,	0,	0,	0,	1,	-360,	360],
		[3355,	9230,	0.00536,	0.03568,	0,	553,	0,	0,	0,	0,	1,	-360,	360],
...
	])
    return ppc

